data_image0
_chemical_formula_structural       CNBNBNBNBNBNBNBNBNBNBNBNBNBNBNBNBNBNBNBNBNBNBNBNBN
_chemical_formula_sum              "C1 N25 B24"
_cell_length_a       12.5
_cell_length_b       12.499999999999998
_cell_length_c       40.0
_cell_angle_alpha    90.0
_cell_angle_beta     90.0
_cell_angle_gamma    120.00000000000001

_space_group_name_H-M_alt    "P 1"
_space_group_IT_number       1

loop_
  _space_group_symop_operation_xyz
  'x, y, z'

loop_
  _atom_site_type_symbol
  _atom_site_label
  _atom_site_symmetry_multiplicity
  _atom_site_fract_x
  _atom_site_fract_y
  _atom_site_fract_z
  _atom_site_occupancy
  C   C1        1.0  0.9999164401509387  8.341624166095865e-05  0.500000000000379  1.0000
  N   N1        1.0  0.06435495312710733  0.12894199668777176  0.5000000000005596  1.0000
  B   B1        1.0  0.9995454205099139  0.19852894714131047  0.5000000000002693  1.0000
  N   N2        1.0  0.06626595394466643  0.3318908398904868  0.500000000000575  1.0000
  B   B2        1.0  0.9996162048632081  0.39927417620112265  0.5000000000002689  1.0000
  N   N3        1.0  0.06602353721789694  0.5329136036171835  0.5000000000004351  1.0000
  B   B3        1.0  0.9996786863703928  0.6002362587243057  0.500000000000267  1.0000
  N   N4        1.0  0.06638706564622844  0.7344475636170877  0.5000000000005601  1.0000
  B   B4        1.0  0.9996202243432818  0.8011121397027737  0.5000000000002689  1.0000
  N   N5        1.0  0.06433479528859629  0.9356648765403854  0.500000000000579  1.0000
  B   B5        1.0  0.19888821891537123  0.00038003126151544674  0.5000000000002688  1.0000
  N   N6        1.0  0.26677752490897727  0.13342699665800148  0.5000000000005651  1.0000
  B   B6        1.0  0.19886509947438563  0.19853072432464944  0.5000000000002683  1.0000
  N   N7        1.0  0.265384144224277  0.33192591630333246  0.5000000000005457  1.0000
  B   B7        1.0  0.19974946568862684  0.3996926129154802  0.5000000000002637  1.0000
  N   N8        1.0  0.2664661654797051  0.5330717654620025  0.5000000000005004  1.0000
  B   B8        1.0  0.1997729583178186  0.5998581964786511  0.5000000000002678  1.0000
  N   N9        1.0  0.2665749417579652  0.7334245687959303  0.5000000000004875  1.0000
  B   B9        1.0  0.19989173006008076  0.8001084885641238  0.500000000000263  1.0000
  N   N10       1.0  0.2655519227876874  0.9336124700794313  0.5000000000005612  1.0000
  B   B10       1.0  0.399764061970385  0.00032170115946919715  0.5000000000002675  1.0000
  N   N11       1.0  0.46691462764461267  0.1335423630261905  0.5000000000004737  1.0000
  B   B11       1.0  0.39997888344521526  0.1999358865463053  0.5000000000002592  1.0000
  N   N12       1.0  0.4668269077115399  0.333259386114474  0.5000000000004802  1.0000
  B   B12       1.0  0.399649092679655  0.3993372888898672  0.5000000000002681  1.0000
  N   N13       1.0  0.4669350806389778  0.5330644179030198  0.5000000000004409  1.0000
  B   B13       1.0  0.40007161089799986  0.599928630306339  0.5000000000002677  1.0000
  N   N14       1.0  0.46692777660213497  0.7335333505062667  0.5000000000005007  1.0000
  B   B14       1.0  0.4001420936466708  0.8002273710914327  0.5000000000002679  1.0000
  N   N15       1.0  0.4670860054355053  0.9339761270200513  0.5000000000004355  1.0000
  B   B15       1.0  0.6007262018347533  0.00038421168279188117  0.5000000000002689  1.0000
  N   N16       1.0  0.6668182932854683  0.1335585385322128  0.5000000000004821  1.0000
  B   B16       1.0  0.6001038405906993  0.2000012164856715  0.5000000000002579  1.0000
  N   N17       1.0  0.6667273607973442  0.33327230266300173  0.5000000000003979  1.0000
  B   B17       1.0  0.6000678559024885  0.39993252996774137  0.5000000000002564  1.0000
  N   N18       1.0  0.6667402677115014  0.5331727425765523  0.5000000000004794  1.0000
  B   B18       1.0  0.6006629984545064  0.600351176261835  0.5000000000002679  1.0000
  N   N19       1.0  0.6680736760664346  0.734615401708264  0.5000000000005455  1.0000
  B   B19       1.0  0.6003076402489086  0.800250774661602  0.5000000000002636  1.0000
  N   N20       1.0  0.6681088246714244  0.9337336433103751  0.5000000000005752  1.0000
  B   B20       1.0  0.8014712756905972  0.00045495449775705  0.500000000000269  1.0000
  N   N21       1.0  0.8665769764525281  0.13342261451246912  0.5000000000005763  1.0000
  B   B21       1.0  0.8000535389814565  0.1999468992586456  0.5000000000002601  1.0000
  N   N22       1.0  0.8664411287952174  0.33318138193282126  0.5000000000004816  1.0000
  B   B22       1.0  0.7999992592268328  0.39989658772960024  0.5000000000002579  1.0000
  N   N23       1.0  0.8664573017264654  0.5330850073630894  0.500000000000474  1.0000
  B   B23       1.0  0.8000645168406217  0.6000214781533187  0.500000000000259  1.0000
  N   N24       1.0  0.8665726304113016  0.7332221361569444  0.5000000000005661  1.0000
  B   B24       1.0  0.8014695906075866  0.8011350982439768  0.5000000000002681  1.0000
  N   N25       1.0  0.8710577894079375  0.9356447686134852  0.5000000000005583  1.0000
