data_image0
_chemical_formula_structural       BNBNBNBNBNBNBNBNBNBNBNBNBNBNBNBNBNBNBNBNBNBNBNBNBN
_chemical_formula_sum              "B25 N25"
_cell_length_a       12.5
_cell_length_b       12.499999999999998
_cell_length_c       40.0
_cell_angle_alpha    90.0
_cell_angle_beta     90.0
_cell_angle_gamma    120.00000000000001

_space_group_name_H-M_alt    "P 1"
_space_group_IT_number       1

loop_
  _space_group_symop_operation_xyz
  'x, y, z'

loop_
  _atom_site_type_symbol
  _atom_site_label
  _atom_site_symmetry_multiplicity
  _atom_site_fract_x
  _atom_site_fract_y
  _atom_site_fract_z
  _atom_site_occupancy
  B   B1        1.0  0.9999900936986728  1.052690207700577e-05  0.5000000000000834  1.0000
  N   N1        1.0  0.06654305294458626  0.13328459537963333  0.50000000000019  1.0000
  B   B2        1.0  0.999934019610981  0.19989890916833508  0.500000000000082  1.0000
  N   N2        1.0  0.06627904310623298  0.33307357550746824  0.5000000000001987  1.0000
  B   B3        1.0  0.999831067589233  0.39985088020253634  0.5000000000000812  1.0000
  N   N3        1.0  0.0661477471787278  0.5330188201655702  0.5000000000002043  1.0000
  B   B4        1.0  0.9998520465677516  0.5999128721732933  0.5000000000000812  1.0000
  N   N4        1.0  0.06635860846307462  0.7332373284770715  0.5000000000001982  1.0000
  B   B5        1.0  0.9999680482529173  0.8000418950523565  0.500000000000082  1.0000
  N   N5        1.0  0.06658713061737195  0.9334122676202117  0.5000000000001895  1.0000
  B   B6        1.0  0.19995868437042671  3.2534405159095995e-05  0.500000000000082  1.0000
  N   N6        1.0  0.26660174498161204  0.13333584106245983  0.5000000000002015  1.0000
  B   B7        1.0  0.19992775483883257  0.19989621846407382  0.5000000000000819  1.0000
  N   N7        1.0  0.26664736463817773  0.3331136821912087  0.5000000000001982  1.0000
  B   B8        1.0  0.19988567724716222  0.3998109084418668  0.5000000000000815  1.0000
  N   N8        1.0  0.26649667666820387  0.5331043510426474  0.500000000000201  1.0000
  B   B9        1.0  0.1998765402939549  0.5999157225376068  0.5000000000000813  1.0000
  N   N9        1.0  0.26656838162038443  0.7334309460780811  0.5000000000002002  1.0000
  B   B10       1.0  0.19993517750876613  0.8000654203882953  0.5000000000000813  1.0000
  N   N10       1.0  0.2667619924456321  0.9336406873687056  0.5000000000001986  1.0000
  B   B11       1.0  0.4000876981124934  0.00014853544463537966  0.5000000000000812  1.0000
  N   N11       1.0  0.4668390851039471  0.13356798410257564  0.5000000000001966  1.0000
  B   B12       1.0  0.39998681939747244  0.19996162317663496  0.5000000000000793  1.0000
  N   N12       1.0  0.4667804867879747  0.3332101048729206  0.5000000000001974  1.0000
  B   B13       1.0  0.4000413862616297  0.39987690068934095  0.5000000000000812  1.0000
  N   N13       1.0  0.46687306791495775  0.5331262111263589  0.5000000000002048  1.0000
  B   B14       1.0  0.4000564249275736  0.5999441470321886  0.5000000000000816  1.0000
  N   N14       1.0  0.46689499330997214  0.733502658781996  0.5000000000002006  1.0000
  B   B15       1.0  0.40008485293385593  0.8001240402374307  0.5000000000000813  1.0000
  N   N15       1.0  0.4669805068121232  0.9338516088454671  0.5000000000002046  1.0000
  B   B16       1.0  0.6001496910837767  0.00016951411025063079  0.5000000000000812  1.0000
  N   N16       1.0  0.6668410190654877  0.1335749090722549  0.5000000000001972  1.0000
  B   B17       1.0  0.6000734900447355  0.2000350131857302  0.5000000000000807  1.0000
  N   N17       1.0  0.6667060480599528  0.3332933715964488  0.500000000000185  1.0000
  B   B18       1.0  0.6000575349683713  0.3999430341253171  0.5000000000000806  1.0000
  N   N18       1.0  0.6667892907376606  0.533218913157326  0.5000000000001972  1.0000
  B   B19       1.0  0.6001236606569308  0.5999591759624117  0.5000000000000814  1.0000
  N   N19       1.0  0.6668856938322075  0.7333519949143429  0.5000000000001987  1.0000
  B   B20       1.0  0.6001896626650816  0.8001149082998009  0.5000000000000816  1.0000
  N   N20       1.0  0.6669257776375866  0.9337202698176564  0.500000000000199  1.0000
  B   B21       1.0  0.8001016668217901  6.656116518839072e-05  0.500000000000082  1.0000
  N   N21       1.0  0.8666579411486807  0.13334141885357315  0.5000000000002025  1.0000
  B   B22       1.0  0.8000336231730043  0.1999669737422909  0.500000000000079  1.0000
  N   N22       1.0  0.8664245089300129  0.33315838482522536  0.5000000000001967  1.0000
  B   B23       1.0  0.7999655691914964  0.3999270852046663  0.5000000000000804  1.0000
  N   N23       1.0  0.8664314393990562  0.5331603270219969  0.5000000000001962  1.0000
  B   B24       1.0  0.8000389634319047  0.6000137562048474  0.5000000000000793  1.0000
  N   N24       1.0  0.8666635631162681  0.7333977016172099  0.5000000000002015  1.0000
  B   B25       1.0  0.8001043547110733  0.8000728211311456  0.500000000000082  1.0000
  N   N25       1.0  0.8667148182270844  0.9334563523446578  0.50000000000019  1.0000
