data_image0
_chemical_formula_structural       NBNBNBNBNBNBNBNBNBNBNBNBNBNBNBNBNBNBNBNBNBNBNBNBN
_chemical_formula_sum              "N25 B24"
_cell_length_a       12.5
_cell_length_b       12.499999999999998
_cell_length_c       40.0
_cell_angle_alpha    90.0
_cell_angle_beta     90.0
_cell_angle_gamma    120.00000000000001

_space_group_name_H-M_alt    "P 1"
_space_group_IT_number       1

loop_
  _space_group_symop_operation_xyz
  'x, y, z'

loop_
  _atom_site_type_symbol
  _atom_site_label
  _atom_site_symmetry_multiplicity
  _atom_site_fract_x
  _atom_site_fract_y
  _atom_site_fract_z
  _atom_site_occupancy
  N   N1        1.0  0.06830324112781765  0.13694781623206895  0.5000000000005365  1.0000
  B   B1        1.0  0.9977264293521315  0.1966211419257342  0.5000000000003519  1.0000
  N   N2        1.0  0.06624278567031434  0.33220787581105565  0.5000000000006983  1.0000
  B   B2        1.0  0.9991999081823153  0.39895351876330337  0.5000000000003456  1.0000
  N   N3        1.0  0.06605648648056135  0.5329208657811014  0.5000000000005052  1.0000
  B   B3        1.0  0.9992715228584309  0.600133547040098  0.5000000000003432  1.0000
  N   N4        1.0  0.066375498105402  0.7340641305505978  0.5000000000006755  1.0000
  B   B4        1.0  0.9978015692528274  0.8011151229020096  0.5000000000003494  1.0000
  N   N5        1.0  0.06858006323778114  0.931418119904078  0.5000000000005352  1.0000
  B   B5        1.0  0.19888478756528805  0.0021985482428455395  0.5000000000003494  1.0000
  N   N6        1.0  0.26862289613641055  0.1343302514659869  0.5000000000011087  1.0000
  B   B6        1.0  0.19872486792142277  0.1965632883051022  0.5000000000003483  1.0000
  N   N7        1.0  0.2656886387388357  0.3322182833363204  0.5000000000006504  1.0000
  B   B7        1.0  0.19939167884059686  0.39899966572830425  0.5000000000003391  1.0000
  N   N8        1.0  0.26635240818220346  0.5328590849484777  0.5000000000005954  1.0000
  B   B8        1.0  0.19965061306906726  0.599795290244442  0.5000000000003366  1.0000
  N   N9        1.0  0.26647291809459783  0.7335265911149981  0.5000000000005663  1.0000
  B   B9        1.0  0.1995480521485294  0.800452234427698  0.5000000000003352  1.0000
  N   N10       1.0  0.2659351456346114  0.9336239518925181  0.5000000000006756  1.0000
  B   B10       1.0  0.3998667476145923  0.0007288861016835106  0.5000000000003433  1.0000
  N   N11       1.0  0.4671870282836405  0.133724957111759  0.5000000000005445  1.0000
  B   B11       1.0  0.4008542645115392  0.20036855202429388  0.5000000000003756  1.0000
  N   N12       1.0  0.4670915246457081  0.3333373200669612  0.5000000000005528  1.0000
  B   B12       1.0  0.39972573068219475  0.39900772773723225  0.5000000000003451  1.0000
  N   N13       1.0  0.4669127977085975  0.5330868484557009  0.500000000000519  1.0000
  B   B13       1.0  0.4001258392525571  0.5998744361827036  0.5000000000003383  1.0000
  N   N14       1.0  0.46714055934398374  0.7336471526395936  0.5000000000005957  1.0000
  B   B14       1.0  0.40020501152627036  0.8003497019023301  0.5000000000003366  1.0000
  N   N15       1.0  0.46707880485498565  0.9339431421163109  0.5000000000005056  1.0000
  B   B15       1.0  0.6010470030745586  0.0008005577758864355  0.5000000000003456  1.0000
  N   N16       1.0  0.6667416612414422  0.13374205381136606  0.5000000000005559  1.0000
  B   B16       1.0  0.6001870728881481  0.20016718312388393  0.5000000000003165  1.0000
  N   N17       1.0  0.6667291180150667  0.3332705658958495  0.5000000000004452  1.0000
  B   B17       1.0  0.600149645737226  0.3998506760237975  0.5000000000003152  1.0000
  N   N18       1.0  0.6666622334679775  0.5329080059785991  0.5000000000005519  1.0000
  B   B18       1.0  0.6009926489658008  0.6002745977314684  0.5000000000003454  1.0000
  N   N19       1.0  0.6677820746675807  0.7343114191553748  0.5000000000006518  1.0000
  B   B19       1.0  0.6010007267073713  0.8006086611548436  0.5000000000003393  1.0000
  N   N20       1.0  0.6677926703923203  0.933756948299013  0.5000000000006983  1.0000
  B   B20       1.0  0.8033796019990588  0.0022738845347442527  0.5000000000003518  1.0000
  N   N21       1.0  0.8656693314193289  0.1343298908949777  0.5000000000010901  1.0000
  B   B21       1.0  0.799617892436562  0.20038255345108757  0.5000000000003756  1.0000
  N   N22       1.0  0.8662576254628483  0.33325799200551803  0.5000000000005567  1.0000
  B   B22       1.0  0.7998332805186348  0.39981331996743225  0.5000000000003165  1.0000
  N   N23       1.0  0.8662746969495835  0.5328125246044583  0.5000000000005443  1.0000
  B   B23       1.0  0.7996317182473525  0.599145830946198  0.5000000000003755  1.0000
  N   N24       1.0  0.865668988003821  0.7313763437505383  0.5000000000011092  1.0000
  B   B24       1.0  0.8034372430733643  0.8012754605580658  0.5000000000003485  1.0000
  N   N25       1.0  0.863059116619871  0.9316993374071346  0.5000000000005359  1.0000
