data_image0
_chemical_formula_structural       B2NBNBNBNBNBNBNBNBNBNBNBNBNBNBNBNBNBNBNBNBNBNBNBN
_chemical_formula_sum              "B25 N24"
_cell_length_a       12.5
_cell_length_b       12.499999999999998
_cell_length_c       40.0
_cell_angle_alpha    90.0
_cell_angle_beta     90.0
_cell_angle_gamma    120.00000000000001

_space_group_name_H-M_alt    "P 1"
_space_group_IT_number       1

loop_
  _space_group_symop_operation_xyz
  'x, y, z'

loop_
  _atom_site_type_symbol
  _atom_site_label
  _atom_site_symmetry_multiplicity
  _atom_site_fract_x
  _atom_site_fract_y
  _atom_site_fract_z
  _atom_site_occupancy
  B   B1        1.0  0.0  0.0  0.5  1.0000
  B   B2        1.0  0.0  0.2  0.5  1.0000
  N   N1        1.0  0.06666666666666668  0.33333333333333337  0.5  1.0000
  B   B3        1.0  0.0  0.4  0.5  1.0000
  N   N2        1.0  0.06666666666666668  0.5333333333333333  0.5  1.0000
  B   B4        1.0  0.0  0.6000000000000001  0.5  1.0000
  N   N3        1.0  0.06666666666666668  0.7333333333333334  0.5  1.0000
  B   B5        1.0  0.0  0.8  0.5  1.0000
  N   N4        1.0  0.06666666666666664  0.9333333333333333  0.5  1.0000
  B   B6        1.0  0.2  0.0  0.5  1.0000
  N   N5        1.0  0.26666666666666666  0.13333333333333333  0.5  1.0000
  B   B7        1.0  0.2  0.2  0.5  1.0000
  N   N6        1.0  0.26666666666666666  0.33333333333333337  0.5  1.0000
  B   B8        1.0  0.2  0.4  0.5  1.0000
  N   N7        1.0  0.26666666666666666  0.5333333333333333  0.5  1.0000
  B   B9        1.0  0.2  0.6000000000000001  0.5  1.0000
  N   N8        1.0  0.26666666666666666  0.7333333333333334  0.5  1.0000
  B   B10       1.0  0.2  0.8  0.5  1.0000
  N   N9        1.0  0.26666666666666666  0.9333333333333333  0.5  1.0000
  B   B11       1.0  0.4  0.0  0.5  1.0000
  N   N10       1.0  0.4666666666666667  0.13333333333333333  0.5  1.0000
  B   B12       1.0  0.4  0.2  0.5  1.0000
  N   N11       1.0  0.46666666666666673  0.33333333333333337  0.5  1.0000
  B   B13       1.0  0.4  0.4  0.5  1.0000
  N   N12       1.0  0.46666666666666673  0.5333333333333333  0.5  1.0000
  B   B14       1.0  0.4  0.6000000000000001  0.5  1.0000
  N   N13       1.0  0.46666666666666673  0.7333333333333334  0.5  1.0000
  B   B15       1.0  0.4  0.8  0.5  1.0000
  N   N14       1.0  0.4666666666666667  0.9333333333333333  0.5  1.0000
  B   B16       1.0  0.6000000000000001  0.0  0.5  1.0000
  N   N15       1.0  0.6666666666666667  0.13333333333333333  0.5  1.0000
  B   B17       1.0  0.6000000000000001  0.2  0.5  1.0000
  N   N16       1.0  0.6666666666666667  0.33333333333333337  0.5  1.0000
  B   B18       1.0  0.6000000000000001  0.4  0.5  1.0000
  N   N17       1.0  0.6666666666666667  0.5333333333333333  0.5  1.0000
  B   B19       1.0  0.6000000000000001  0.6000000000000001  0.5  1.0000
  N   N18       1.0  0.6666666666666667  0.7333333333333334  0.5  1.0000
  B   B20       1.0  0.6000000000000001  0.8  0.5  1.0000
  N   N19       1.0  0.6666666666666667  0.9333333333333333  0.5  1.0000
  B   B21       1.0  0.8  0.0  0.5  1.0000
  N   N20       1.0  0.8666666666666667  0.13333333333333333  0.5  1.0000
  B   B22       1.0  0.8  0.2  0.5  1.0000
  N   N21       1.0  0.8666666666666667  0.33333333333333337  0.5  1.0000
  B   B23       1.0  0.8  0.4  0.5  1.0000
  N   N22       1.0  0.8666666666666667  0.5333333333333333  0.5  1.0000
  B   B24       1.0  0.8  0.6000000000000001  0.5  1.0000
  N   N23       1.0  0.8666666666666667  0.7333333333333334  0.5  1.0000
  B   B25       1.0  0.8  0.8  0.5  1.0000
  N   N24       1.0  0.8666666666666666  0.9333333333333333  0.5  1.0000
