data_image0
_chemical_formula_structural       B2NBNBNBNBNBNBNBNBNBNBNBNBNBNBNBNBNBNBNBNBNBNBNBN
_chemical_formula_sum              "B25 N24"
_cell_length_a       12.5
_cell_length_b       12.499999999999998
_cell_length_c       40.0
_cell_angle_alpha    90.0
_cell_angle_beta     90.0
_cell_angle_gamma    120.00000000000001

_space_group_name_H-M_alt    "P 1"
_space_group_IT_number       1

loop_
  _space_group_symop_operation_xyz
  'x, y, z'

loop_
  _atom_site_type_symbol
  _atom_site_label
  _atom_site_symmetry_multiplicity
  _atom_site_fract_x
  _atom_site_fract_y
  _atom_site_fract_z
  _atom_site_occupancy
  B   B1        1.0  0.006805738404233001  0.01379787930174145  0.5000000000006691  1.0000
  B   B2        1.0  0.006972231368760884  0.19297165981246037  0.5000000000008553  1.0000
  N   N1        1.0  0.06741928196981282  0.32817178831438526  0.50000000000214  1.0000
  B   B3        1.0  0.00037097995927080516  0.39655502238193896  0.5000000000009792  1.0000
  N   N2        1.0  0.06597247944047321  0.5312661550339949  0.5000000000008712  1.0000
  B   B4        1.0  6.327469749493276e-05  0.6000163280968037  0.5000000000009692  1.0000
  N   N3        1.0  0.06616001615041171  0.7348337172761369  0.5000000000020192  1.0000
  B   B5        1.0  0.0005097590550735731  0.8036751852393141  0.5000000000010634  1.0000
  N   N4        1.0  0.06721985149686936  0.9390351352004137  0.5000000000008943  1.0000
  B   B6        1.0  0.19972828399955408  0.00013709092560792264  0.5000000000009942  1.0000
  N   N5        1.0  0.2604709889715269  0.1325455394162725  0.5000000000025268  1.0000
  B   B7        1.0  0.1858917233474712  0.19301059469906054  0.5000000000008774  1.0000
  N   N6        1.0  0.26048560582406005  0.3282493165205168  0.500000000002409  1.0000
  B   B8        1.0  0.19978513326272945  0.39983726246571233  0.5000000000009516  1.0000
  N   N7        1.0  0.266396865581516  0.5329675181133264  0.500000000000984  1.0000
  B   B9        1.0  0.19965501109985842  0.5996773820769016  0.5000000000008851  1.0000
  N   N8        1.0  0.26634298644331317  0.7334695434387131  0.5000000000018693  1.0000
  B   B10       1.0  0.19978873280582954  0.800448384504406  0.500000000001003  1.0000
  N   N9        1.0  0.2666804752223184  0.9340042698218634  0.5000000000011288  1.0000
  B   B11       1.0  0.40003909923381453  0.00048153134884784324  0.5000000000007953  1.0000
  N   N10       1.0  0.4653937640060315  0.13379440731184586  0.5000000000011225  1.0000
  B   B12       1.0  0.3960969244803529  0.19913472863873527  0.5000000000010207  1.0000
  N   N11       1.0  0.4648993475202999  0.3321494592030008  0.5000000000011168  1.0000
  B   B13       1.0  0.39611631744062836  0.3966055206938034  0.5000000000009919  1.0000
  N   N12       1.0  0.46526441152133097  0.5313857827843455  0.5000000000008046  1.0000
  B   B14       1.0  0.3999936944435261  0.5997579416016631  0.5000000000008931  1.0000
  N   N13       1.0  0.4672056155067589  0.7336017522421973  0.5000000000020978  1.0000
  B   B15       1.0  0.40022631007228593  0.8004010785477581  0.5000000000010069  1.0000
  N   N14       1.0  0.467218931444449  0.9342523469080323  0.5000000000008841  1.0000
  B   B16       1.0  0.6006036443402621  0.000542443905137443  0.5000000000008028  1.0000
  N   N15       1.0  0.6684795901422868  0.13380067384656055  0.5000000000012012  1.0000
  B   B17       1.0  0.5999478137555216  0.19975243867830686  0.5000000000007966  1.0000
  N   N16       1.0  0.6666363977802171  0.33310571072877054  0.5000000000008814  1.0000
  B   B18       1.0  0.5992002755209112  0.3994188362799277  0.5000000000008269  1.0000
  N   N17       1.0  0.6667149034393447  0.533213570506243  0.5000000000013164  1.0000
  B   B19       1.0  0.6000317243633788  0.6001197408999166  0.5000000000009439  1.0000
  N   N18       1.0  0.6686363808123252  0.7349875318816654  0.5000000000017847  1.0000
  B   B20       1.0  0.6007425828767861  0.8006065606636951  0.5000000000010203  1.0000
  N   N19       1.0  0.6673966536101759  0.93412261315827  0.5000000000011824  1.0000
  B   B21       1.0  0.8003775985510226  0.00024095749898126384  0.5000000000009813  1.0000
  N   N20       1.0  0.8718822576520328  0.1325707355134373  0.5000000000023558  1.0000
  B   B22       1.0  0.8030569173867578  0.1991560003601526  0.500000000001001  1.0000
  N   N21       1.0  0.8671894970863235  0.33209546498944836  0.5000000000011198  1.0000
  B   B23       1.0  0.8003360514487576  0.39939013366281406  0.5000000000008237  1.0000
  N   N22       1.0  0.8665255619255232  0.5331262463894408  0.5000000000012533  1.0000
  B   B24       1.0  0.8004552075960445  0.6007981958333652  0.5000000000009069  1.0000
  N   N23       1.0  0.8674221718515591  0.7350054772469947  0.5000000000013997  1.0000
  B   B25       1.0  0.8031180214720881  0.8037452622473836  0.5000000000010366  1.0000
  N   N24       1.0  0.8715537712759938  0.9390695413273856  0.5000000000008791  1.0000
