data_image0
_chemical_formula_structural       CBNBNBNBNBNBNBNBNBNBNBNBNBNBNBNBNBNBNBNBNBNBNBNBN
_chemical_formula_sum              "C1 B24 N24"
_cell_length_a       12.5
_cell_length_b       12.499999999999998
_cell_length_c       40.0
_cell_angle_alpha    90.0
_cell_angle_beta     90.0
_cell_angle_gamma    120.00000000000001

_space_group_name_H-M_alt    "P 1"
_space_group_IT_number       1

loop_
  _space_group_symop_operation_xyz
  'x, y, z'

loop_
  _atom_site_type_symbol
  _atom_site_label
  _atom_site_symmetry_multiplicity
  _atom_site_fract_x
  _atom_site_fract_y
  _atom_site_fract_z
  _atom_site_occupancy
  C   C1        1.0  0.9946164251832564  0.9892224235511378  0.5000000000217474  1.0000
  B   B1        1.0  0.028261071366213714  0.20802244836049597  0.4999999999951566  1.0000
  N   N1        1.0  0.07225943884750574  0.3396742559634246  0.5000000000201371  1.0000
  B   B2        1.0  0.0016935596798382947  0.40098618212494536  0.5000000000057753  1.0000
  N   N2        1.0  0.06755311081607239  0.5344570553166784  0.5000000000027154  1.0000
  B   B3        1.0  0.9987923407501582  0.5976468323824022  0.5000000000037131  1.0000
  N   N3        1.0  0.0648859205778663  0.7306122927096939  0.5000000000071105  1.0000
  B   B4        1.0  0.9943872042815418  0.7914928338216695  0.5000000000052064  1.0000
  N   N4        1.0  0.05636103203584618  0.9242490754036891  0.5000000000011818  1.0000
  B   B5        1.0  0.19215405636614674  0.0014708205256947582  0.5000000000031773  1.0000
  N   N5        1.0  0.25076732266779467  0.13527427433429717  0.5000000000025046  1.0000
  B   B6        1.0  0.17970989139824364  0.20805683689362156  0.4999999999949385  1.0000
  N   N6        1.0  0.2673297750156361  0.33971290198566134  0.5000000000159801  1.0000
  B   B7        1.0  0.2050169027359338  0.4101217819197373  0.5000000000085564  1.0000
  N   N7        1.0  0.2710579014649963  0.5419966434892669  0.5000000000052655  1.0000
  B   B8        1.0  0.20136028878689285  0.6051180270255582  0.5000000000041463  1.0000
  N   N8        1.0  0.2679763051969857  0.7385550138202054  0.5000000000055168  1.0000
  B   B9        1.0  0.19864068700691992  0.8025950730458816  0.5000000000043738  1.0000
  N   N9        1.0  0.26247783410632  0.9365040461745261  0.5000000000037536  1.0000
  B   B10       1.0  0.3976492469212324  0.0013873279599599627  0.5000000000035577  1.0000
  N   N10       1.0  0.462408306770807  0.13393999178205124  0.5000000000053872  1.0000
  B   B11       1.0  0.3892361346509756  0.19804746601891826  0.5000000000041709  1.0000
  N   N11       1.0  0.462655717927896  0.331248482189221  0.5000000000044722  1.0000
  B   B12       1.0  0.3992765885936229  0.40120872728031165  0.5000000000054786  1.0000
  N   N12       1.0  0.4670542550654009  0.5347746982024639  0.5000000000029429  1.0000
  B   B13       1.0  0.40388034833751496  0.6052783703807043  0.5000000000040069  1.0000
  N   N13       1.0  0.47069974741417603  0.7386815725706573  0.5000000000052754  1.0000
  B   B14       1.0  0.4020733699608421  0.8040967711537056  0.5000000000044428  1.0000
  N   N14       1.0  0.4685938608440972  0.9371696586982332  0.5000000000024849  1.0000
  B   B15       1.0  0.6036564411758875  0.0014210296831636674  0.5000000000039004  1.0000
  N   N15       1.0  0.6712874906801567  0.13392269908979992  0.5000000000060772  1.0000
  B   B16       1.0  0.5988495408932503  0.19782642693665253  0.5000000000043666  1.0000
  N   N16       1.0  0.6653704452122159  0.3306974692591221  0.5000000000022251  1.0000
  B   B17       1.0  0.5965281557235871  0.3955993433221752  0.5000000000022835  1.0000
  N   N17       1.0  0.6636915472105193  0.5288349638096788  0.5000000000045791  1.0000
  B   B18       1.0  0.5990665722698778  0.5978495185980275  0.5000000000035856  1.0000
  N   N18       1.0  0.6659715055503357  0.7308710692724825  0.5000000000065569  1.0000
  B   B19       1.0  0.6040493806889906  0.8026970309787458  0.5000000000044624  1.0000
  N   N19       1.0  0.6738327088556608  0.9365567009252184  0.5000000000044372  1.0000
  B   B20       1.0  0.8092252724991005  0.0013313265956959675  0.5000000000033444  1.0000
  N   N20       1.0  0.8843989173562143  0.1351889747041142  0.5000000000021338  1.0000
  B   B21       1.0  0.8086279446995576  0.19788091739627403  0.5000000000039994  1.0000
  N   N21       1.0  0.8682865175106801  0.33104374222162997  0.5000000000036126  1.0000
  B   B22       1.0  0.7990336362833113  0.3955053148890608  0.5000000000021673  1.0000
  N   N22       1.0  0.8652134572783614  0.5286954278131052  0.5000000000045074  1.0000
  B   B23       1.0  0.7963080936919184  0.5923884358749806  0.5000000000073651  1.0000
  N   N23       1.0  0.8625834848994233  0.7248597833391383  0.5000000000157411  1.0000
  B   B24       1.0  0.7973057246002881  0.7914094395284109  0.5000000000051461  1.0000
  N   N24       1.0  0.8678627124277553  0.9240488179197431  0.5000000000014225  1.0000
